*Heading
** Job name: pad_nofillet_real_impactor Model name: Model-1
** Generated by: Abaqus/CAE 2018
*Preprint, echo=NO, model=NO, history=NO, contact=NO
** ----------------------------------------------------------------
** 
** PART INSTANCE: impactor_mesh_part-1
** 
*Node
      1,   46.5143127,   48.1511421,   43.2000008
      2,   33.7863922,   35.4232216,   43.2000008
      3,   51.7863922,   35.4232216,   43.2000008
      4,   33.7863922,   35.4232216,   63.2000008
      5,   46.5143127,   48.1511421,   63.2000008
      6,   51.7863922,   35.4232216,   63.2000008
      7,   33.7863922,   53.4232216,   63.2000008
      8,   33.7863922,   53.4232216,   43.2000008
      9,   21.0584698,   48.1511421,   43.2000008
     10,   15.7863913,   35.4232216,   43.2000008
     11,   21.0584698,   48.1511421,   63.2000008
     12,   15.7863913,   35.4232216,   63.2000008
     13,   21.0584698,   22.6952972,   43.2000008
     14,   21.0584698,   22.6952972,   63.2000008
     15,   33.7863922,   17.4232197,   63.2000008
     16,   33.7863922,   17.4232197,   43.2000008
     17,   46.5143127,   22.6952972,   43.2000008
     18,   46.5143127,   22.6952972,   63.2000008
     19,   51.4640617,   53.1008911,   43.2000008
     20,   58.7863922,   35.4232216,   43.2000008
** ... 5538 like lines cut
*Element, type=C3D8R
  1,  747,  748, 3031, 2986,   55,   54,  688,  687
  2,  748,  749, 3032, 3031,   54,   53,  689,  688
  3,  749,   64,  711, 3032,   53,    1,   63,  689
  4, 2986, 3031, 3033, 2987,  687,  688,  691,  690
  5, 3031, 3032, 3034, 3033,  688,  689,  692,  691
  6, 3032,  711,  712, 3034,  689,   63,   62,  692
  7, 2987, 3033, 3035, 2988,  690,  691,  694,  693
  8, 3033, 3034, 3036, 3035,  691,  692,  695,  694
  9, 3034,  712,  713, 3036,  692,   62,   61,  695
 10, 2988, 3035, 2992, 2974,  693,  694,  697,  696
 11, 3035, 3036, 2993, 2992,  694,  695,  698,  697
 12, 3036,  713,  714, 2993,  695,   61,   60,  698
 13,  750,  751, 3037, 2989,  747,  748, 3031, 2986
 14,  751,  752, 3038, 3037,  748,  749, 3032, 3031
 15,  752,   65,  715, 3038,  749,   64,  711, 3032
 16, 2989, 3037, 3039, 2990, 2986, 3031, 3033, 2987
 17, 3037, 3038, 3040, 3039, 3031, 3032, 3034, 3033
 18, 3038,  715,  716, 3040, 3032,  711,  712, 3034
 19, 2990, 3039, 3041, 2991, 2987, 3033, 3035, 2988
 20, 3039, 3040, 3042, 3041, 3033, 3034, 3036, 3035
** ... 4588 like lines cut
*Nset, nset=impactor_mesh_part-1_impactor_fullset, generate
    1,  5558,     1
*Elset, elset=impactor_mesh_part-1_impactor_fullset, generate
    1,  4608,     1
** Section: elastic_section
*Solid Section, elset=impactor_mesh_part-1_impactor_fullset, material=ELASTIC
,
** ----------------------------------------------------------------
** 
** PART INSTANCE: pad_no_fillet_mesh-1
** 
*Node
   5559,   55.7402878,   56.2461357,           0.
   5560,   55.7402878,   56.2461357,           9.
   5561,   56.1445351,    76.584938,           9.
   5562,   56.1445351,    76.584938,           0.
   5563,   23.3538895,   64.1296158,           0.
   5564,   23.3538895,   64.1296158,           9.
   5565,   36.9448624,   87.6698761,           9.
   5566,   36.9448624,   87.6698761,           0.
   5567,   55.7402878,   56.2461357,          18.
   5568,   56.1445351,    76.584938,          18.
   5569,   23.3538895,   64.1296158,          18.
   5570,   36.9448624,   87.6698761,          18.
   5571,         15.5,   39.7707024,           9.
   5572,   33.7863922,   35.4232216,           9.
   5573,          31.,          27.,           9.
   5574,          31.,         13.5,           9.
   5575,         15.5,         13.5,           9.
   5576,   33.7863922,   35.4232216,          18.
   5577,         15.5,   39.7707024,          18.
   5578,         15.5,         13.5,          18.
** ... 16795 like lines cut
*Element, type=C3D8
4609,  5559,  5631,  6618,  5664,  5708,  6924, 11814,  6762
4610,  5631,  5632,  6619,  6618,  6924,  6925, 11815, 11814
4611,  5632,  5633,  6620,  6619,  6925,  6926, 11816, 11815
4612,  5633,  5634,  6621,  6620,  6926,  6927, 11817, 11816
4613,  5634,  5635,  6622,  6621,  6927,  6928, 11818, 11817
4614,  5635,  5636,  6623,  6622,  6928,  6929, 11819, 11818
4615,  5636,  5637,  6624,  6623,  6929,  6930, 11820, 11819
4616,  5637,  5638,  6625,  6624,  6930,  6931, 11821, 11820
4617,  5638,  5560,  5639,  6625,  6931,  5726,  6843, 11821
4618,  5664,  6618,  6626,  5663,  6762, 11814, 11822,  6763
4619,  6618,  6619,  6627,  6626, 11814, 11815, 11823, 11822
4620,  6619,  6620,  6628,  6627, 11815, 11816, 11824, 11823
4621,  6620,  6621,  6629,  6628, 11816, 11817, 11825, 11824
4622,  6621,  6622,  6630,  6629, 11817, 11818, 11826, 11825
4623,  6622,  6623,  6631,  6630, 11818, 11819, 11827, 11826
4624,  6623,  6624,  6632,  6631, 11819, 11820, 11828, 11827
4625,  6624,  6625,  6633,  6632, 11820, 11821, 11829, 11828
4626,  6625,  5639,  5640,  6633, 11821,  6843,  6844, 11829
4627,  5663,  6626,  6634,  5662,  6763, 11822, 11830,  6764
4628,  6626,  6627,  6635,  6634, 11822, 11823, 11831, 11830
** ... 14812 like lines cut
*Nset, nset=pad_no_fillet_mesh-1_Set-1, generate
  5559,  22373,      1
*Elset, elset=pad_no_fillet_mesh-1_Set-1, generate
  4609,  19440,      1
*Elset, elset=pad_no_fillet_mesh-1_stiff_set
  4609,  4610,  4611,  4612,  4613,  4614,  4618,  4619,  4620,  4621,  4622,  4623,  4627,  4628,  4629,  4630
  4631,  4632,  4636,  4637,  4638,  4639,  4640,  4641,  4645,  4646,  4647,  4648,  4649,  4650,  4654,  4655
  4656,  4657,  4658,  4659,  4663,  4664,  4665,  4666,  4667,  4668,  4672,  4673,  4674,  4675,  4676,  4677
  4681,  4682,  4683,  4684,  4685,  4686,  4690,  4691,  4692,  4693,  4694,  4695,  4699,  4700,  4701,  4702
  4703,  4704,  4708,  4709,  4710,  4711,  4712,  4713,  4717,  4718,  4719,  4720,  4721,  4722,  4726,  4727
  4728,  4729,  4730,  4731,  4735,  4736,  4737,  4738,  4739,  4740,  4744,  4745,  4746,  4747,  4748,  4749
  4753,  4754,  4755,  4756,  4757,  4758,  4762,  4763,  4764,  4765,  4766,  4767,  4771,  4772,  4773,  4774
  4775,  4776,  4780,  4781,  4782,  4783,  4784,  4785,  4789,  4790,  4791,  4792,  4793,  4794,  4798,  4799
  4800,  4801,  4802,  4803,  4807,  4808,  4809,  4810,  4811,  4812,  4816,  4817,  4818,  4819,  4820,  4821
  4825,  4826,  4827,  4828,  4829,  4830,  4834,  4835,  4836,  4837,  4838,  4839,  4843,  4844,  4845,  4846
  4847,  4848,  4852,  4853,  4854,  4855,  4856,  4857,  4861,  4862,  4863,  4864,  4865,  4866,  4870,  4871
  4872,  4873,  4874,  4875,  4879,  4880,  4881,  4882,  4883,  4884,  4888,  4889,  4890,  4891,  4892,  4893
  4897,  4898,  4899,  4900,  4901,  4902,  4906,  4907,  4908,  4909,  4910,  4911,  4915,  4916,  4917,  4918
  4919,  4920,  4924,  4925,  4926,  4927,  4928,  4929,  4933,  4934,  4935,  4936,  4937,  4938,  4942,  4943
  4944,  4945,  4946,  4947,  4951,  4952,  4953,  4954,  4955,  4956,  4960,  4961,  4962,  4963,  4964,  4965
  4969,  4970,  4971,  4972,  4973,  4974,  4978,  4979,  4980,  4981,  4982,  4983,  4987,  4988,  4989,  4990
  4991,  4992,  4996,  4997,  4998,  4999,  5000,  5001,  5005,  5006,  5007,  5008,  5009,  5010,  5014,  5015
  5016,  5017,  5018,  5019,  5023,  5024,  5025,  5026,  5027,  5028,  5032,  5033,  5034,  5035,  5036,  5037
  5041,  5042,  5043,  5044,  5045,  5046,  5050,  5051,  5052,  5053,  5054,  5055,  5059,  5060,  5061,  5062
  5063,  5064,  5068,  5069,  5070,  5071,  5072,  5073,  5077,  5078,  5079,  5080,  5081,  5082,  5086,  5087
** ... 289 like lines cut
*Elset, elset=pad_no_fillet_mesh-1_soft_set
  4615,  4616,  4617,  4624,  4625,  4626,  4633,  4634,  4635,  4642,  4643,  4644,  4651,  4652,  4653,  4660
  4661,  4662,  4669,  4670,  4671,  4678,  4679,  4680,  4687,  4688,  4689,  4696,  4697,  4698,  4705,  4706
  4707,  4714,  4715,  4716,  4723,  4724,  4725,  4732,  4733,  4734,  4741,  4742,  4743,  4750,  4751,  4752
  4759,  4760,  4761,  4768,  4769,  4770,  4777,  4778,  4779,  4786,  4787,  4788,  4795,  4796,  4797,  4804
  4805,  4806,  4813,  4814,  4815,  4822,  4823,  4824,  4831,  4832,  4833,  4840,  4841,  4842,  4849,  4850
  4851,  4858,  4859,  4860,  4867,  4868,  4869,  4876,  4877,  4878,  4885,  4886,  4887,  4894,  4895,  4896
  4903,  4904,  4905,  4912,  4913,  4914,  4921,  4922,  4923,  4930,  4931,  4932,  4939,  4940,  4941,  4948
  4949,  4950,  4957,  4958,  4959,  4966,  4967,  4968,  4975,  4976,  4977,  4984,  4985,  4986,  4993,  4994
  4995,  5002,  5003,  5004,  5011,  5012,  5013,  5020,  5021,  5022,  5029,  5030,  5031,  5038,  5039,  5040
  5047,  5048,  5049,  5056,  5057,  5058,  5065,  5066,  5067,  5074,  5075,  5076,  5083,  5084,  5085,  5092
  5093,  5094,  5101,  5102,  5103,  5110,  5111,  5112,  5119,  5120,  5121,  5128,  5129,  5130,  5137,  5138
  5139,  5146,  5147,  5148,  5155,  5156,  5157,  5164,  5165,  5166,  5173,  5174,  5175,  5182,  5183,  5184
  5191,  5192,  5193,  5200,  5201,  5202,  5209,  5210,  5211,  5218,  5219,  5220,  5227,  5228,  5229,  5236
  5237,  5238,  5245,  5246,  5247,  5254,  5255,  5256,  5263,  5264,  5265,  5272,  5273,  5274,  5281,  5282
  5283,  5290,  5291,  5292,  5299,  5300,  5301,  5308,  5309,  5310,  5317,  5318,  5319,  5326,  5327,  5328
  5335,  5336,  5337,  5344,  5345,  5346,  5353,  5354,  5355,  5362,  5363,  5364,  5371,  5372,  5373,  5380
  5381,  5382,  5389,  5390,  5391,  5398,  5399,  5400,  5407,  5408,  5409,  5416,  5417,  5418,  5425,  5426
  5427,  5434,  5435,  5436,  5443,  5444,  5445,  5452,  5453,  5454,  5461,  5462,  5463,  5470,  5471,  5472
  5479,  5480,  5481,  5488,  5489,  5490,  5497,  5498,  5499,  5506,  5507,  5508,  5509,  5510,  5511,  5512
  5513,  5514,  5515,  5516,  5517,  5518,  5519,  5520,  5521,  5522,  5523,  5524,  5525,  5526,  5527,  5528
** ... 598 like lines cut
** Section: stiff_section
*Solid Section, elset=pad_no_fillet_mesh-1_stiff_set, material=ABAQUS_visc_umat_stiff
,
** Section: soft_section
*Solid Section, elset=pad_no_fillet_mesh-1_soft_set, material=ABAQUS_visc_umat_soft
,
*System
*Elset, elset=imp_face_elset
 2126, 2127, 2128, 2129, 2130, 2131, 2132, 2133, 2134, 2135, 2136, 2137, 2138, 2139, 2140, 2141
 2142, 2143, 2144, 2145, 2146, 2147, 2148, 2149, 2150, 2151, 2152, 2153, 2154, 2155, 2156, 2157
 2158, 2159, 2160, 2161, 2162, 2163, 2164, 2165, 2166, 2167, 2168, 2169, 2170, 2171, 2172, 2173
 2174, 2175, 2176, 2177, 2178, 2179, 2180, 2181, 2182, 2183, 2184, 2185, 2186, 2187, 2188, 2189
 2190, 2191, 2192, 2193, 2471, 2472, 2473, 2474, 2475, 2476, 2477, 2478, 2479, 2480, 2481, 2482
 2483, 2484, 2485, 2486, 2487, 2488, 2489, 2490, 2491, 2492, 2493, 2494, 2495, 2496, 2497, 2498
 2499, 2500, 2501, 2502, 2503, 2504, 2505, 2506, 2507, 2508, 2509, 2510, 2511, 2512, 2513, 2514
 2515, 2516, 2517, 2518, 2519, 2520, 2521, 2522, 2523, 2524, 2525, 2526, 2527, 2528, 2529, 2530
 2531, 2532, 2533, 2534, 2535, 2536, 2537, 2538, 2816, 2817, 2818, 2819, 2820, 2821, 2822, 2823
 2824, 2825, 2826, 2827, 2828, 2829, 2830, 2831, 2832, 2833, 2834, 2835, 2836, 2837, 2838, 2839
 2840, 2841, 2842, 2843, 2844, 2845, 2846, 2847, 2848, 2849, 2850, 2851, 2852, 2853, 2854, 2855
 2856, 2857, 2858, 2859, 2860, 2861, 2862, 2863, 2864, 2865, 2866, 2867, 2868, 2869, 2870, 2871
 2872, 2873, 2874, 2875, 2876, 2877, 2878, 2879, 2880, 2881, 2882, 2883, 3161, 3162, 3163, 3164
 3165, 3166, 3167, 3168, 3169, 3170, 3171, 3172, 3173, 3174, 3175, 3176, 3177, 3178, 3179, 3180
 3181, 3182, 3183, 3184, 3185, 3186, 3187, 3188, 3189, 3190, 3191, 3192, 3193, 3194, 3195, 3196
 3197, 3198, 3199, 3200, 3201, 3202, 3203, 3204, 3205, 3206, 3207, 3208, 3209, 3210, 3211, 3212
 3213, 3214, 3215, 3216, 3217, 3218, 3219, 3220, 3221, 3222, 3223, 3224, 3225, 3226, 3227, 3228
 3506, 3507, 3508, 3509, 3510, 3511, 3512, 3513, 3514, 3515, 3516, 3517, 3518, 3519, 3520, 3521
 3522, 3523, 3524, 3525, 3526, 3527, 3528, 3529, 3530, 3531, 3532, 3533, 3534, 3535, 3536, 3537
 3538, 3539, 3540, 3541, 3542, 3543, 3544, 3545, 3546, 3547, 3548, 3549, 3550, 3551, 3552, 3553
** ... 14 like lines cut
*Nset, nset=imp_face_nset
   26,   27,   28,   32,   39,   40,   44,   48,   52,  338,  339,  340,  341,  342,  343,  344
  345,  346,  347,  348,  353,  354,  355,  356,  357,  358,  359,  360,  361,  362,  363,  364
  365,  366,  367,  368,  400,  401,  402,  403,  404,  405,  408,  409,  410,  411,  412,  413
  414,  415,  416,  417,  418,  464,  465,  466,  467,  468,  469,  470,  471,  472,  473,  474
  475,  476,  477,  478,  479,  480,  481,  482,  483,  484,  487,  488,  489,  490,  491,  492
  511,  512,  513,  514,  515,  516,  549,  550,  551,  552,  553,  554,  555,  556,  557,  558
  559,  560,  561,  562,  563,  564,  596,  597,  598,  599,  600,  601,  604,  605,  606,  607
  608,  609,  610,  611,  612,  613,  614,  647,  648,  649,  650,  651,  652,  653,  654,  655
  656,  657,  658,  659,  660,  661,  662,  681,  682,  683,  684,  685,  686, 1773, 1774, 1775
 1776, 1777, 1778, 1779, 1780, 1781, 1782, 1783, 1784, 1785, 1786, 1787, 1788, 1789, 1790, 1791
 1792, 1793, 1794, 1795, 1796, 1797, 1798, 1799, 1800, 1801, 1802, 1803, 1804, 1805, 1806, 1807
 1808, 1809, 1810, 1811, 1812, 1813, 1814, 1815, 1816, 1817, 1818, 1819, 1820, 1821, 1822, 1823
 1824, 1825, 1826, 1943, 1944, 1945, 1946, 1947, 1948, 1949, 1950, 1951, 1952, 1953, 1954, 1955
 1956, 1957, 1958, 1959, 1960, 1961, 1962, 1963, 1964, 1965, 1966, 1967, 1968, 1969, 1970, 1971
 1972, 1973, 1974, 1975, 1976, 1977, 1978, 1979, 1980, 1981, 1982, 1983, 1984, 1985, 1986, 1987
 1988, 1989, 1990, 1991, 1992, 1993, 1994, 1995, 1996, 2147, 2148, 2149, 2150, 2151, 2152, 2153
 2154, 2155, 2156, 2157, 2158, 2159, 2160, 2161, 2162, 2163, 2164, 2165, 2166, 2167, 2168, 2169
 2170, 2171, 2172, 2173, 2174, 2175, 2176, 2177, 2178, 2179, 2180, 2181, 2182, 2183, 2184, 2185
 2186, 2187, 2188, 2189, 2190, 2191, 2192, 2193, 2194, 2195, 2196, 2197, 2198, 2199, 2200, 2279
 2280, 2281, 2282, 2283, 2284, 2285, 2286, 2287, 2288, 2289, 2290, 2291, 2292, 2293, 2294, 2295
** ... 16 like lines cut
*Elset, elset=pad_zneg_elset
  4609,  4618,  4627,  4636,  4645,  4654,  4663,  4672,  4681,  4690,  4699,  4708,  4717,  4726,  4735,  4744
  4753,  4762,  4771,  4780,  4789,  4798,  4807,  4816,  4825,  4834,  4843,  4852,  4861,  4870,  4879,  4888
  4897,  4906,  4915,  4924,  4933,  4942,  4951,  4960,  4969,  4978,  4987,  4996,  5005,  5014,  5023,  5032
  5041,  5050,  5059,  5068,  5077,  5086,  5095,  5104,  5113,  5122,  5131,  5140,  5149,  5158,  5167,  5176
  5185,  5194,  5203,  5212,  5221,  5230,  5239,  5248,  5257,  5266,  5275,  5284,  5293,  5302,  5311,  5320
  5329,  5338,  5347,  5356,  5365,  5374,  5383,  5392,  5401,  5410,  5419,  5428,  5437,  5446,  5455,  5464
  5473,  5482,  5491,  5500,  9249,  9250,  9251,  9252,  9253,  9254,  9255,  9256,  9257,  9258,  9259,  9260
  9261,  9262,  9263,  9264,  9265,  9266,  9267,  9268,  9269,  9270,  9271,  9272,  9273,  9274,  9275,  9276
  9277,  9278,  9279,  9280,  9281,  9282,  9283,  9284,  9285,  9286,  9287,  9288,  9289,  9290,  9291,  9292
  9293,  9294,  9295,  9296,  9297,  9298,  9299,  9300,  9301,  9302,  9303,  9304,  9305,  9306,  9307,  9308
  9309,  9310,  9311,  9312,  9313,  9314,  9315,  9316,  9317,  9318,  9319,  9320,  9321,  9322,  9323,  9324
  9325,  9326,  9327,  9328,  9329,  9330,  9331,  9332,  9333,  9334,  9335,  9336,  9337,  9338,  9339,  9340
  9341,  9342,  9343,  9344,  9345,  9346,  9347,  9348,  9349,  9350,  9351,  9352,  9353,  9354,  9355,  9356
  9357,  9358,  9359,  9360,  9361,  9362,  9363,  9364,  9365,  9366,  9367,  9368,  9369,  9370,  9371,  9372
  9373,  9374,  9375,  9376,  9377,  9378, 10099, 10100, 10101, 10102, 10103, 10104, 10105, 10106, 10107, 10108
 10109, 10110, 10111, 10112, 10113, 10114, 10115, 10116, 10117, 10118, 10119, 10120, 10121, 10122, 10123, 10124
 10125, 10126, 10127, 10128, 10129, 10130, 10131, 10132, 10133, 10134, 10135, 10136, 10137, 10138, 10139, 10140
 10141, 10142, 10143, 10144, 10145, 10146, 10147, 10148, 10149, 10150, 10151, 10152, 10153, 10154, 10155, 10156
 10157, 10158, 10159, 10160, 10161, 10162, 10163, 10164, 10165, 10166, 10167, 10168, 10169, 10170, 10171, 10172
 10173, 10174, 10175, 10176, 10177, 10178, 10179, 10180, 10181, 10182, 10183, 10184, 10185, 10186, 10187, 10188
** ... 32 like lines cut
*Nset, nset=pad_zneg_nset
 5559, 5562, 5563, 5566, 5587, 5588, 5589, 5590, 5591, 5594, 5595, 5597, 5600, 5601, 5602, 5607
 5608, 5611, 5612, 5616, 5617, 5622, 5623, 5625, 5656, 5657, 5658, 5659, 5660, 5661, 5662, 5663
 5664, 5690, 5691, 5692, 5693, 5694, 5695, 5696, 5697, 5698, 5699, 5700, 5701, 5702, 5703, 5704
 5705, 5706, 5707, 5708, 5709, 5710, 5711, 5712, 5713, 5714, 5715, 5716, 6009, 6010, 6011, 6012
 6013, 6014, 6015, 6016, 6017, 6018, 6019, 6020, 6021, 6022, 6023, 6024, 6025, 6026, 6027, 6028
 6029, 6030, 6031, 6032, 6033, 6034, 6035, 6036, 6076, 6077, 6078, 6079, 6080, 6081, 6082, 6083
 6084, 6085, 6086, 6087, 6088, 6089, 6090, 6091, 6092, 6093, 6094, 6095, 6096, 6097, 6098, 6117
 6118, 6119, 6120, 6121, 6122, 6123, 6124, 6125, 6126, 6190, 6191, 6192, 6193, 6194, 6195, 6196
 6197, 6198, 6199, 6200, 6201, 6202, 6203, 6204, 6205, 6206, 6207, 6208, 6209, 6210, 6211, 6212
 6289, 6290, 6291, 6292, 6293, 6294, 6295, 6296, 6297, 6298, 6299, 6300, 6301, 6302, 6303, 6304
 6305, 6306, 6307, 6308, 6309, 6310, 6345, 6346, 6347, 6348, 6349, 6350, 6351, 6352, 6353, 6354
 6355, 6356, 6357, 6358, 6359, 6360, 6361, 6362, 6421, 6422, 6423, 6424, 6425, 6426, 6427, 6428
 6429, 6430, 6431, 6432, 6433, 6434, 6435, 6436, 6437, 6438, 6439, 6440, 6441, 6442, 6443, 6444
 6505, 6506, 6507, 6508, 6509, 6510, 6511, 6512, 6513, 6514, 6530, 6531, 6532, 6533, 6534, 6535
 6536, 6762, 6763, 6764, 6765, 6766, 6767, 6768, 6769, 6770, 6771, 6772, 6773, 6774, 6775, 6776
 6777, 6778, 6779, 6780, 6781, 6782, 6783, 6784, 6785, 6786, 6787, 6788, 6789, 6790, 6791, 6792
 6793, 6794, 6795, 6796, 6797, 6798, 6799, 6800, 6801, 6802, 6803, 6804, 6805, 6806, 6807, 6808
 6809, 6810, 6811, 6812, 6813, 6814, 6815, 6816, 6817, 6818, 6819, 6820, 6821, 6822, 6823, 6824
 6825, 6826, 6827, 6828, 6829, 6830, 6831, 6832, 6833, 6834, 6835, 6836, 6837, 6838, 6839, 6840
 6841, 6842, 8171, 8172, 8173, 8174, 8175, 8176, 8177, 8178, 8179, 8180, 8181, 8182, 8183, 8184
** ... 36 like lines cut
*Elset, elset=pad_zpos_elset
  5509,  5510,  5511,  5512,  5513,  5514,  5515,  5516,  5517,  5518,  5599,  5600,  5601,  5602,  5603,  5604
  5605,  5606,  5607,  5608,  5689,  5690,  5691,  5692,  5693,  5694,  5695,  5696,  5697,  5698,  5779,  5780
  5781,  5782,  5783,  5784,  5785,  5786,  5787,  5788,  5869,  5870,  5871,  5872,  5873,  5874,  5875,  5876
  5877,  5878,  5959,  5960,  5961,  5962,  5963,  5964,  5965,  5966,  5967,  5968,  6049,  6050,  6051,  6052
  6053,  6054,  6055,  6056,  6057,  6058,  6139,  6140,  6141,  6142,  6143,  6144,  6145,  6146,  6147,  6148
  6229,  6230,  6231,  6232,  6233,  6234,  6235,  6236,  6237,  6238,  6319,  6320,  6321,  6322,  6323,  6324
  6325,  6326,  6327,  6328,  6969,  6970,  6971,  6972,  6973,  6974,  6975,  6976,  6977,  6978,  6979,  6980
  6981,  6982,  6983,  6984,  6985,  6986,  6987,  6988,  6989,  6990,  6991,  6992,  6993,  6994,  6995,  6996
  6997,  6998,  6999,  7000,  7001,  7002,  7003,  7004,  7005,  7006,  7007,  7008,  7009,  7010,  7011,  7012
  7013,  7014,  7015,  7016,  7017,  7018,  7019,  7020,  7021,  7022,  7023,  7024,  7025,  7026,  7027,  7028
  7029,  7030,  7031,  7032,  7033,  7034,  7035,  7036,  7037,  7038,  8079,  8080,  8081,  8082,  8083,  8084
  8085,  8086,  8087,  8088,  8089,  8090,  8091,  8092,  8093,  8094,  8095,  8096,  8097,  8098,  8099,  8100
  8101,  8102,  8103,  8104,  8105,  8106,  8107,  8108,  8109,  8110,  8111,  8112,  8113,  8114,  8115,  8116
  8117,  8118,  8119,  8120,  8121,  8122,  8123,  8124,  8125,  8126,  8127,  8128,  8129,  8130,  8131,  8132
  8133,  8134,  8135,  8136,  8137,  8138,  8139,  8140,  8141,  8142,  8143,  8144,  8145,  8146,  8147,  8148
  8149,  8150,  8151,  8152,  8153,  8154,  8155,  8156,  8157,  8158,  8159,  8160,  8161,  8162,  8163,  8164
  8165,  8166,  8167,  8168,  8169,  8170,  8171,  8172,  8173,  8174,  8175,  8176,  8177,  8178,  8179,  8180
  8181,  8182,  8183,  8184,  8185,  8186,  8187,  8188,  8189,  8190,  8191,  8192,  8193,  8194,  8195,  8196
  8197,  8198,  8199,  8200,  8201,  8202,  8203,  8204,  8205,  8206,  8207,  8208, 11413, 11414, 11415, 11416
 11417, 11418, 11419, 11420, 11421, 11422, 11423, 11424, 11425, 11426, 11427, 11428, 11429, 11430, 11431, 11432
** ... 32 like lines cut
*Nset, nset=pad_zpos_nset
 5567, 5568, 5569, 5570, 5576, 5577, 5578, 5579, 5580, 5584, 5585, 5586, 5598, 5599, 5605, 5606
 5613, 5618, 5619, 5626, 5627, 5628, 5629, 5630, 5735, 5736, 5737, 5738, 5739, 5740, 5741, 5742
 5743, 5760, 5761, 5762, 5763, 5764, 5765, 5766, 5767, 5768, 5785, 5786, 5787, 5788, 5789, 5790
 5791, 5792, 5793, 5794, 5795, 5796, 5797, 5798, 5799, 5800, 5801, 5802, 5872, 5873, 5874, 5875
 5876, 5877, 5878, 5879, 5880, 5881, 5882, 5883, 5884, 5885, 5886, 5887, 5888, 5889, 5890, 5891
 5892, 5893, 5894, 5895, 5896, 5897, 5898, 5899, 5900, 5947, 5948, 5949, 5950, 5951, 5952, 5953
 5954, 5955, 5956, 5957, 5958, 5959, 5960, 5961, 5962, 5963, 5964, 5965, 5966, 5967, 5968, 6143
 6144, 6145, 6146, 6147, 6148, 6149, 6150, 6151, 6152, 6153, 6154, 6155, 6156, 6157, 6158, 6159
 6160, 6161, 6162, 6163, 6164, 6165, 6251, 6252, 6253, 6254, 6255, 6256, 6257, 6258, 6259, 6260
 6261, 6262, 6263, 6264, 6265, 6266, 6267, 6268, 6269, 6270, 6271, 6272, 6371, 6372, 6373, 6374
 6375, 6376, 6377, 6378, 6379, 6380, 6461, 6462, 6463, 6464, 6465, 6466, 6467, 6468, 6469, 6470
 6471, 6472, 6473, 6474, 6475, 6476, 6477, 6478, 6561, 6562, 6563, 6564, 6565, 6566, 6567, 6568
 6569, 6570, 6571, 6572, 6573, 6574, 6575, 6576, 6585, 6586, 6587, 6588, 6589, 6590, 6591, 6592
 6593, 6594, 6595, 6596, 6597, 6598, 6599, 6600, 6601, 6602, 6611, 6612, 6613, 6614, 6615, 6616
 6617, 7356, 7357, 7358, 7359, 7360, 7361, 7362, 7363, 7364, 7365, 7366, 7367, 7368, 7369, 7370
 7371, 7372, 7373, 7374, 7375, 7376, 7377, 7378, 7379, 7380, 7381, 7382, 7383, 7384, 7385, 7386
 7387, 7388, 7389, 7390, 7391, 7392, 7393, 7394, 7395, 7396, 7397, 7398, 7399, 7400, 7401, 7402
 7403, 7404, 7405, 7406, 7407, 7408, 7409, 7410, 7411, 7412, 7413, 7414, 7415, 7416, 7417, 7418
 7419, 7420, 7421, 7422, 7423, 7424, 7425, 7426, 7427, 7428, 7429, 7430, 7431, 7432, 7433, 7434
 7435, 7436, 7491, 7492, 7493, 7494, 7495, 7496, 7497, 7498, 7499, 7500, 7501, 7502, 7503, 7504
** ... 36 like lines cut
*Elset, elset=soft_set
  4615,  4616,  4617,  4624,  4625,  4626,  4633,  4634,  4635,  4642,  4643,  4644,  4651,  4652,  4653,  4660
  4661,  4662,  4669,  4670,  4671,  4678,  4679,  4680,  4687,  4688,  4689,  4696,  4697,  4698,  4705,  4706
  4707,  4714,  4715,  4716,  4723,  4724,  4725,  4732,  4733,  4734,  4741,  4742,  4743,  4750,  4751,  4752
  4759,  4760,  4761,  4768,  4769,  4770,  4777,  4778,  4779,  4786,  4787,  4788,  4795,  4796,  4797,  4804
  4805,  4806,  4813,  4814,  4815,  4822,  4823,  4824,  4831,  4832,  4833,  4840,  4841,  4842,  4849,  4850
  4851,  4858,  4859,  4860,  4867,  4868,  4869,  4876,  4877,  4878,  4885,  4886,  4887,  4894,  4895,  4896
  4903,  4904,  4905,  4912,  4913,  4914,  4921,  4922,  4923,  4930,  4931,  4932,  4939,  4940,  4941,  4948
  4949,  4950,  4957,  4958,  4959,  4966,  4967,  4968,  4975,  4976,  4977,  4984,  4985,  4986,  4993,  4994
  4995,  5002,  5003,  5004,  5011,  5012,  5013,  5020,  5021,  5022,  5029,  5030,  5031,  5038,  5039,  5040
  5047,  5048,  5049,  5056,  5057,  5058,  5065,  5066,  5067,  5074,  5075,  5076,  5083,  5084,  5085,  5092
  5093,  5094,  5101,  5102,  5103,  5110,  5111,  5112,  5119,  5120,  5121,  5128,  5129,  5130,  5137,  5138
  5139,  5146,  5147,  5148,  5155,  5156,  5157,  5164,  5165,  5166,  5173,  5174,  5175,  5182,  5183,  5184
  5191,  5192,  5193,  5200,  5201,  5202,  5209,  5210,  5211,  5218,  5219,  5220,  5227,  5228,  5229,  5236
  5237,  5238,  5245,  5246,  5247,  5254,  5255,  5256,  5263,  5264,  5265,  5272,  5273,  5274,  5281,  5282
  5283,  5290,  5291,  5292,  5299,  5300,  5301,  5308,  5309,  5310,  5317,  5318,  5319,  5326,  5327,  5328
  5335,  5336,  5337,  5344,  5345,  5346,  5353,  5354,  5355,  5362,  5363,  5364,  5371,  5372,  5373,  5380
  5381,  5382,  5389,  5390,  5391,  5398,  5399,  5400,  5407,  5408,  5409,  5416,  5417,  5418,  5425,  5426
  5427,  5434,  5435,  5436,  5443,  5444,  5445,  5452,  5453,  5454,  5461,  5462,  5463,  5470,  5471,  5472
  5479,  5480,  5481,  5488,  5489,  5490,  5497,  5498,  5499,  5506,  5507,  5508,  5509,  5510,  5511,  5512
  5513,  5514,  5515,  5516,  5517,  5518,  5519,  5520,  5521,  5522,  5523,  5524,  5525,  5526,  5527,  5528
** ... 598 like lines cut
*Elset, elset=stiff_set
  4609,  4610,  4611,  4612,  4613,  4614,  4618,  4619,  4620,  4621,  4622,  4623,  4627,  4628,  4629,  4630
  4631,  4632,  4636,  4637,  4638,  4639,  4640,  4641,  4645,  4646,  4647,  4648,  4649,  4650,  4654,  4655
  4656,  4657,  4658,  4659,  4663,  4664,  4665,  4666,  4667,  4668,  4672,  4673,  4674,  4675,  4676,  4677
  4681,  4682,  4683,  4684,  4685,  4686,  4690,  4691,  4692,  4693,  4694,  4695,  4699,  4700,  4701,  4702
  4703,  4704,  4708,  4709,  4710,  4711,  4712,  4713,  4717,  4718,  4719,  4720,  4721,  4722,  4726,  4727
  4728,  4729,  4730,  4731,  4735,  4736,  4737,  4738,  4739,  4740,  4744,  4745,  4746,  4747,  4748,  4749
  4753,  4754,  4755,  4756,  4757,  4758,  4762,  4763,  4764,  4765,  4766,  4767,  4771,  4772,  4773,  4774
  4775,  4776,  4780,  4781,  4782,  4783,  4784,  4785,  4789,  4790,  4791,  4792,  4793,  4794,  4798,  4799
  4800,  4801,  4802,  4803,  4807,  4808,  4809,  4810,  4811,  4812,  4816,  4817,  4818,  4819,  4820,  4821
  4825,  4826,  4827,  4828,  4829,  4830,  4834,  4835,  4836,  4837,  4838,  4839,  4843,  4844,  4845,  4846
  4847,  4848,  4852,  4853,  4854,  4855,  4856,  4857,  4861,  4862,  4863,  4864,  4865,  4866,  4870,  4871
  4872,  4873,  4874,  4875,  4879,  4880,  4881,  4882,  4883,  4884,  4888,  4889,  4890,  4891,  4892,  4893
  4897,  4898,  4899,  4900,  4901,  4902,  4906,  4907,  4908,  4909,  4910,  4911,  4915,  4916,  4917,  4918
  4919,  4920,  4924,  4925,  4926,  4927,  4928,  4929,  4933,  4934,  4935,  4936,  4937,  4938,  4942,  4943
  4944,  4945,  4946,  4947,  4951,  4952,  4953,  4954,  4955,  4956,  4960,  4961,  4962,  4963,  4964,  4965
  4969,  4970,  4971,  4972,  4973,  4974,  4978,  4979,  4980,  4981,  4982,  4983,  4987,  4988,  4989,  4990
  4991,  4992,  4996,  4997,  4998,  4999,  5000,  5001,  5005,  5006,  5007,  5008,  5009,  5010,  5014,  5015
  5016,  5017,  5018,  5019,  5023,  5024,  5025,  5026,  5027,  5028,  5032,  5033,  5034,  5035,  5036,  5037
  5041,  5042,  5043,  5044,  5045,  5046,  5050,  5051,  5052,  5053,  5054,  5055,  5059,  5060,  5061,  5062
  5063,  5064,  5068,  5069,  5070,  5071,  5072,  5073,  5077,  5078,  5079,  5080,  5081,  5082,  5086,  5087
** ... 289 like lines cut
*Elset, elset=_imp_face_surf_S2
 2126, 2127, 2128, 2129, 2130, 2131, 2132, 2133, 2134, 2135, 2136, 2137, 2138, 2139, 2140, 2141
 2142, 2143, 2144, 2145, 2146, 2147, 2148, 2149, 2150, 2151, 2152, 2153, 2154, 2155, 2156, 2157
 2158, 2159, 2160, 2161, 2162, 2163, 2164, 2165, 2166, 2167, 2168, 2169, 2170, 2171, 2172, 2173
 2174, 2175, 2176, 2177, 2178, 2179, 2180, 2181, 2182, 2183, 2184, 2185, 2186, 2187, 2188, 2189
 2190, 2191, 2192, 2193, 2471, 2472, 2473, 2474, 2475, 2476, 2477, 2478, 2479, 2480, 2481, 2482
 2483, 2484, 2485, 2486, 2487, 2488, 2489, 2490, 2491, 2492, 2493, 2494, 2495, 2496, 2497, 2498
 2499, 2500, 2501, 2502, 2503, 2504, 2505, 2506, 2507, 2508, 2509, 2510, 2511, 2512, 2513, 2514
 2515, 2516, 2517, 2518, 2519, 2520, 2521, 2522, 2523, 2524, 2525, 2526, 2527, 2528, 2529, 2530
 2531, 2532, 2533, 2534, 2535, 2536, 2537, 2538, 2816, 2817, 2818, 2819, 2820, 2821, 2822, 2823
 2824, 2825, 2826, 2827, 2828, 2829, 2830, 2831, 2832, 2833, 2834, 2835, 2836, 2837, 2838, 2839
 2840, 2841, 2842, 2843, 2844, 2845, 2846, 2847, 2848, 2849, 2850, 2851, 2852, 2853, 2854, 2855
 2856, 2857, 2858, 2859, 2860, 2861, 2862, 2863, 2864, 2865, 2866, 2867, 2868, 2869, 2870, 2871
 2872, 2873, 2874, 2875, 2876, 2877, 2878, 2879, 2880, 2881, 2882, 2883, 3161, 3162, 3163, 3164
 3165, 3166, 3167, 3168, 3169, 3170, 3171, 3172, 3173, 3174, 3175, 3176, 3177, 3178, 3179, 3180
 3181, 3182, 3183, 3184, 3185, 3186, 3187, 3188, 3189, 3190, 3191, 3192, 3193, 3194, 3195, 3196
 3197, 3198, 3199, 3200, 3201, 3202, 3203, 3204, 3205, 3206, 3207, 3208, 3209, 3210, 3211, 3212
 3213, 3214, 3215, 3216, 3217, 3218, 3219, 3220, 3221, 3222, 3223, 3224, 3225, 3226, 3227, 3228
 3506, 3507, 3508, 3509, 3510, 3511, 3512, 3513, 3514, 3515, 3516, 3517, 3518, 3519, 3520, 3521
 3522, 3523, 3524, 3525, 3526, 3527, 3528, 3529, 3530, 3531, 3532, 3533, 3534, 3535, 3536, 3537
 3538, 3539, 3540, 3541, 3542, 3543, 3544, 3545, 3546, 3547, 3548, 3549, 3550, 3551, 3552, 3553
** ... 14 like lines cut
*Surface, type=ELEMENT, name=imp_face_surf
_imp_face_surf_S2, S2
*Surface, type=NODE, name=pad_zpos_nset_CNS_
pad_zpos_nset
** 
** MATERIALS
** 
** "soft" is 20C, 0DA
*MATERIAL, NAME=ABAQUS_visc_umat_soft
**
** Temperature should range between 253 K and 333 K.
** Dosage should range between 0 Gy and 16200 Gy. Note, it's assumed
** that 8100 Gy corresponds to 1 Day of X-ray exposure.
**
*USER MATERIAL, CONSTANTS=4
**
** Temperature (K), Dosage (Gy), UMAT logging flag (1 or -1), UMAT logging time, Dummy temperature (K)
293.15, 0.0, -1.0, 10.0, 293.0
**
*DEPVAR
16
*DENSITY
120
**
*MATERIAL, NAME=ABAQUS_visc_umat_stiff
**
** Temperature should range between 253 K and 333 K.
** Dosage should range between 0 Gy and 16200 Gy. Note, it's assumed
** that 8100 Gy corresponds to 1 Day of X-ray exposure.
**
*USER MATERIAL, CONSTANTS=4
**
** Temperature (K), Dosage (Gy), UMAT logging flag (1 or -1), UMAT logging time, Dummy temperature (K)
293.15, 16200.0, -1.0, 10.0, 293.0
**
*DEPVAR
16
*DENSITY
120
*MATERIAL,NAME=ELASTIC
*ELASTIC,TYPE=ISOTROPIC
100000000,0.25
*DENSITY
7500

** ---------- CONTACT DEFINITIONS ----------
*CONTACT PAIR,INTERACTION=SI1,TYPE=NODE TO SURFACE,SMALL SLIDING
pad_zpos_nset_CNS_, imp_face_surf
*SURFACE INTERACTION,NAME=SI1
*SURFACE BEHAVIOR,PRESSURE-OVERCLOSURE=LINEAR
7000000, 35
*FRICTION
0.25,50000
** ----------------------------------------------------------------
** 
** STEP: Step-1
** 
*Step, NLGEOM=YES, INC=100000
*Static, SOLVER=SPOOLES
5e-10, 5e-5, 1e-11, 1e-9
** 
** BOUNDARY CONDITIONS
** 
** Name: BC-1 Type: Displacement/Rotation
*Boundary
pad_zneg_nset, 1, 1, 
pad_zneg_nset, 2, 2, 
pad_zneg_nset, 3, 3, 
** Name: BC-2 Type: Velocity/Angular velocity
*Boundary, type=VELOCITY
impactor_mesh_part-1_impactor_fullset, 3,, -300.
** 
** OUTPUT REQUESTS
** 
*NODE FILE, GLOBAL=YES, FREQUENCY=4
U,RF
*EL FILE, FREQUENCY=4
S,E
*End Step
